/*--------------------------------*- C++ -*----------------------------------*\
| =========                 |                                                 |
| \\      /  F ield         | OpenFOAM: The Open Source CFD Toolbox           |
|  \\    /   O peration     | Version:  2.1.0                                 |
|   \\  /    A nd           | Web:      www.OpenFOAM.org                      |
|    \\/     M anipulation  |                                                 |
\*---------------------------------------------------------------------------*/
FoamFile
{
    version     2.0;
    format      ascii;
    class       dictionary;
    object      blockMeshDict;
}
// * * * * * * * * * * * * * * * * * * * * * * * * * * * * * * * * * * * * * //

convertToMeters 1;

vertices
(
    (0  0  0)
    (5  0  0)
    (5  1  0)
    (0  1  0)
    (0  0  1)
    (5  0  1)
    (5  1  1)
    (0  1  1)
);

blocks
(
    hex (0 1 2 3 4 5 6 7) (5 2 3) simpleGrading (1 1 1)
);

edges
(
);

boundary
(
    perio_x_half0
    {
        type cyclic;
        neighbourPatch perio_x_half1;
        faces
        (
            (0 4 7 3)
        );
    }
    perio_x_half1
    {
        type cyclic;
        neighbourPatch perio_x_half0;
        faces
        (
            (2 6 5 1)
        );
    }
    perio_y_half0
    {
        type cyclic;
        neighbourPatch perio_y_half1;
        faces
        (
            (3 7 6 2)
        );
    }
    perio_y_half1
    {
        type cyclic;
        neighbourPatch perio_y_half0;
        faces
        (
            (1 5 4 0)
        );
    }
    perio_z_half0
    {
        type cyclic;
        neighbourPatch perio_z_half1;
        faces
        (
            (0 3 2 1)
        );
    }
    perio_z_half1
    {
        type cyclic;
        neighbourPatch perio_z_half0;
        faces
        (
            (4 5 6 7)
        );
    }
);

mergePatchPairs
(
);

// ************************************************************************* //
